/*--------------------------------*- C++ -*----------------------------------*\
| =========                 |                                                 |
| \\      /  F ield         | OpenFOAM: The Open Source CFD Toolbox           |
|  \\    /   O peration     | Version:  v2212                                 |
|   \\  /    A nd           | Website:  www.openfoam.com                      |
|    \\/     M anipulation  |                                                 |
\*---------------------------------------------------------------------------*/
FoamFile
{
    version     2.0;
    format      ascii;
    class       volScalarField;
    object      p;
}
// * * * * * * * * * * * * * * * * * * * * * * * * * * * * * * * * * * * * * //

dimensions      [1 -1 -2 0 0 0 0];

internalField   uniform 1.38e3;


boundaryField
{
	wall
	{
		type		zeroGradient;
	}

    	outlet
    	{
        	type            waveTransmissive;
        	field           p;
        	psi             thermo:psi;
        	gamma           1.67;
        	fieldInf        0.0001;
        	lInf            1;
        	value           uniform 0.0001;
    	}
    	
	inlet
    	{
   	     	type            fixedValue;
		value		uniform 1.38e3;
    	}		

    	frontAndBackPlanes
    	{
        	type            empty;
    	}
}


// ************************************************************************* //
