/*--------------------------------*- C++ -*----------------------------------*\
| =========                 |                                                 |
| \\      /  F ield         | OpenFOAM: The Open Source CFD Toolbox           |
|  \\    /   O peration     | Version:  v2212                                 |
|   \\  /    A nd           | Website:  www.openfoam.com                      |
|    \\/     M anipulation  |                                                 |
\*---------------------------------------------------------------------------*/
FoamFile
{
    version     2.0;
    format      ascii;
    class       volScalarField;
    object      p;
}
// * * * * * * * * * * * * * * * * * * * * * * * * * * * * * * * * * * * * * //

dimensions      [1 -1 -2 0 0 0 0];

internalField   uniform 612;


boundaryField
{
	wall
	{
		type		zeroGradient;
	}

    	outlet
    	{
   	     	type            inletOutlet;
        	inletValue      uniform 0.00001;
       		value           uniform 0.00001;
    	}		

    	frontAndBackPlanes
    	{
        	type            empty;
    	}
}


// ************************************************************************* //
